<?xml version="1.0" encoding="UTF-8"?>

<!-- generated on 2026-03-10T20:31:21.993627+01:00 by Eclipse SUMO netconvert 1.26.0
<netconvertConfiguration xmlns:xsi="http://www.w3.org/2001/XMLSchema-instance" xsi:noNamespaceSchemaLocation="http://sumo.dlr.de/xsd/netconvertConfiguration.xsd">

    <input>
        <node-files value="/home/tassany/Documents/Codes/HelloWorld_SUMONS3/examples/sumo/map.nod.xml"/>
        <edge-files value="/home/tassany/Documents/Codes/HelloWorld_SUMONS3/examples/sumo/map.edg.xml"/>
    </input>

    <output>
        <output-file value="/home/tassany/Documents/Codes/HelloWorld_SUMONS3/examples/sumo/map.net.xml"/>
    </output>

</netconvertConfiguration>
-->

<net version="1.20" junctionCornerDetail="5" limitTurnSpeed="5.50" xmlns:xsi="http://www.w3.org/2001/XMLSchema-instance" xsi:noNamespaceSchemaLocation="http://sumo.dlr.de/xsd/net_file.xsd">

    <location netOffset="0.00,0.00" convBoundary="0.00,0.00,1000.00,0.00" origBoundary="0.00,0.00,1000.00,0.00" projParameter="!"/>

    <edge id="street1" from="n0" to="n1" priority="-1">
        <lane id="street1_0" index="0" speed="30.00" length="1000.00" shape="0.00,-1.60 1000.00,-1.60"/>
    </edge>

    <junction id="n0" type="dead_end" x="0.00" y="0.00" incLanes="" intLanes="" shape="0.00,0.00 0.00,-3.20"/>
    <junction id="n1" type="dead_end" x="1000.00" y="0.00" incLanes="street1_0" intLanes="" shape="1000.00,-3.20 1000.00,0.00"/>

</net>
