<edges>
  <edge id="street1" from="n0" to="n1" numLanes="1" speed="30"/>
</edges>