<?xml version='1.0' encoding='utf-8'?>
<configuration>
  <input>
    <net-file value="map.net.xml" />
    <route-files value="veh.rou.xml" />
  </input>
  <time>
    <begin value="0" />
    <end value="100" />
    <step-length value="0.1" />
  </time>
  <output>
    <fcd-output value="fcd.xml" />
  </output>
</configuration>