<routes>
    <vType id="car" accel="2.6" decel="2.0" sigma="0.0" maxSpeed="30"/>
    <route id="route1" edges="street1"/>

    <vehicle id="v0" type="car" route="route1" depart="0"/>
    <vehicle id="v1" type="car" route="route1" depart="2"/>
    <vehicle id="v2" type="car" route="route1" depart="4"/>
</routes>