<?xml version="1.0" encoding="UTF-8"?>

<!-- generated on 2026-03-05T00:42:04.662910+01:00 by Eclipse SUMO netgenerate 1.26.0
<netgenerateConfiguration xmlns:xsi="http://www.w3.org/2001/XMLSchema-instance" xsi:noNamespaceSchemaLocation="http://sumo.dlr.de/xsd/netgenerateConfiguration.xsd">

    <grid_network>
        <grid value="true"/>
        <grid.number value="11"/>
        <grid.x-length value="200"/>
        <grid.y-length value="200"/>
        <grid.attach-length value="0"/>
    </grid_network>

    <output>
        <output-file value="/home/tassany/Documents/Codes/HelloWorld_SUMONS3/sumo/grid.net.xml"/>
    </output>

    <processing>
        <offset.x value="1000"/>
        <offset.y value="1000"/>
    </processing>

    <building_defaults>
        <default.speed value="30"/>
    </building_defaults>

</netgenerateConfiguration>
-->

<net version="1.20" junctionCornerDetail="5" limitTurnSpeed="5.50" xmlns:xsi="http://www.w3.org/2001/XMLSchema-instance" xsi:noNamespaceSchemaLocation="http://sumo.dlr.de/xsd/net_file.xsd">

    <location netOffset="1000.00,1000.00" convBoundary="1000.00,1000.00,3000.00,3000.00" origBoundary="0.00,0.00,2000.00,2000.00" projParameter="!"/>

    <edge id=":A0_0" function="internal">
        <lane id=":A0_0_0" index="0" speed="6.08" length="7.74" shape="998.40,1003.20 998.70,1001.10 999.60,999.60 1001.10,998.70 1003.20,998.40"/>
    </edge>
    <edge id=":A0_1" function="internal">
        <lane id=":A0_1_0" index="0" speed="3.90" length="2.58" shape="1003.20,1001.60 1002.50,1001.70 1002.00,1002.00 1001.70,1002.50 1001.60,1003.20"/>
    </edge>
    <edge id=":A1_0" function="internal">
        <lane id=":A1_0_0" index="0" speed="30.00" length="14.40" shape="998.40,1207.20 998.40,1192.80"/>
    </edge>
    <edge id=":A1_1" function="internal">
        <lane id=":A1_1_0" index="0" speed="8.00" length="4.07" shape="998.40,1207.20 998.95,1203.35 999.04,1203.20"/>
    </edge>
    <edge id=":A1_2" function="internal">
        <lane id=":A1_2_0" index="0" speed="3.65" length="1.44" shape="998.40,1207.20 999.20,1206.00"/>
    </edge>
    <edge id=":A1_9" function="internal">
        <lane id=":A1_9_0" index="0" speed="8.00" length="10.13" shape="999.04,1203.20 1000.60,1200.60 1003.35,1198.95 1007.20,1198.40"/>
    </edge>
    <edge id=":A1_10" function="internal">
        <lane id=":A1_10_0" index="0" speed="3.65" length="3.23" shape="999.20,1206.00 1000.00,1205.60 1000.80,1206.00 1001.60,1207.20"/>
    </edge>
    <edge id=":A1_3" function="internal">
        <lane id=":A1_3_0" index="0" speed="6.51" length="9.03" shape="1007.20,1201.60 1004.75,1201.95 1003.00,1203.00 1001.95,1204.75 1001.60,1207.20"/>
    </edge>
    <edge id=":A1_4" function="internal">
        <lane id=":A1_4_0" index="0" speed="8.00" length="14.19" shape="1007.20,1201.60 1003.35,1201.05 1000.60,1199.40 998.95,1196.65 998.40,1192.80"/>
    </edge>
    <edge id=":A1_5" function="internal">
        <lane id=":A1_5_0" index="0" speed="3.65" length="4.67" shape="1007.20,1201.60 1006.00,1200.80 1005.60,1200.00 1006.00,1199.20 1007.20,1198.40"/>
    </edge>
    <edge id=":A1_6" function="internal">
        <lane id=":A1_6_0" index="0" speed="6.51" length="9.03" shape="1001.60,1192.80 1001.95,1195.25 1003.00,1197.00 1004.75,1198.05 1007.20,1198.40"/>
    </edge>
    <edge id=":A1_7" function="internal">
        <lane id=":A1_7_0" index="0" speed="30.00" length="14.40" shape="1001.60,1192.80 1001.60,1207.20"/>
    </edge>
    <edge id=":A1_8" function="internal">
        <lane id=":A1_8_0" index="0" speed="3.65" length="1.44" shape="1001.60,1192.80 1000.80,1194.00"/>
    </edge>
    <edge id=":A1_11" function="internal">
        <lane id=":A1_11_0" index="0" speed="3.65" length="3.23" shape="1000.80,1194.00 1000.00,1194.40 999.20,1194.00 998.40,1192.80"/>
    </edge>
    <edge id=":A10_0" function="internal">
        <lane id=":A10_0_0" index="0" speed="6.08" length="7.74" shape="1003.20,3001.60 1001.10,3001.30 999.60,3000.40 998.70,2998.90 998.40,2996.80"/>
    </edge>
    <edge id=":A10_1" function="internal">
        <lane id=":A10_1_0" index="0" speed="3.90" length="2.58" shape="1001.60,2996.80 1001.70,2997.50 1002.00,2998.00 1002.50,2998.30 1003.20,2998.40"/>
    </edge>
    <edge id=":A2_0" function="internal">
        <lane id=":A2_0_0" index="0" speed="30.00" length="14.40" shape="998.40,1407.20 998.40,1392.80"/>
    </edge>
    <edge id=":A2_1" function="internal">
        <lane id=":A2_1_0" index="0" speed="8.00" length="4.07" shape="998.40,1407.20 998.95,1403.35 999.04,1403.20"/>
    </edge>
    <edge id=":A2_2" function="internal">
        <lane id=":A2_2_0" index="0" speed="3.65" length="1.44" shape="998.40,1407.20 999.20,1406.00"/>
    </edge>
    <edge id=":A2_9" function="internal">
        <lane id=":A2_9_0" index="0" speed="8.00" length="10.13" shape="999.04,1403.20 1000.60,1400.60 1003.35,1398.95 1007.20,1398.40"/>
    </edge>
    <edge id=":A2_10" function="internal">
        <lane id=":A2_10_0" index="0" speed="3.65" length="3.23" shape="999.20,1406.00 1000.00,1405.60 1000.80,1406.00 1001.60,1407.20"/>
    </edge>
    <edge id=":A2_3" function="internal">
        <lane id=":A2_3_0" index="0" speed="6.51" length="9.03" shape="1007.20,1401.60 1004.75,1401.95 1003.00,1403.00 1001.95,1404.75 1001.60,1407.20"/>
    </edge>
    <edge id=":A2_4" function="internal">
        <lane id=":A2_4_0" index="0" speed="8.00" length="14.19" shape="1007.20,1401.60 1003.35,1401.05 1000.60,1399.40 998.95,1396.65 998.40,1392.80"/>
    </edge>
    <edge id=":A2_5" function="internal">
        <lane id=":A2_5_0" index="0" speed="3.65" length="4.67" shape="1007.20,1401.60 1006.00,1400.80 1005.60,1400.00 1006.00,1399.20 1007.20,1398.40"/>
    </edge>
    <edge id=":A2_6" function="internal">
        <lane id=":A2_6_0" index="0" speed="6.51" length="9.03" shape="1001.60,1392.80 1001.95,1395.25 1003.00,1397.00 1004.75,1398.05 1007.20,1398.40"/>
    </edge>
    <edge id=":A2_7" function="internal">
        <lane id=":A2_7_0" index="0" speed="30.00" length="14.40" shape="1001.60,1392.80 1001.60,1407.20"/>
    </edge>
    <edge id=":A2_8" function="internal">
        <lane id=":A2_8_0" index="0" speed="3.65" length="1.44" shape="1001.60,1392.80 1000.80,1394.00"/>
    </edge>
    <edge id=":A2_11" function="internal">
        <lane id=":A2_11_0" index="0" speed="3.65" length="3.23" shape="1000.80,1394.00 1000.00,1394.40 999.20,1394.00 998.40,1392.80"/>
    </edge>
    <edge id=":A3_0" function="internal">
        <lane id=":A3_0_0" index="0" speed="30.00" length="14.40" shape="998.40,1607.20 998.40,1592.80"/>
    </edge>
    <edge id=":A3_1" function="internal">
        <lane id=":A3_1_0" index="0" speed="8.00" length="4.07" shape="998.40,1607.20 998.95,1603.35 999.04,1603.20"/>
    </edge>
    <edge id=":A3_2" function="internal">
        <lane id=":A3_2_0" index="0" speed="3.65" length="1.44" shape="998.40,1607.20 999.20,1606.00"/>
    </edge>
    <edge id=":A3_9" function="internal">
        <lane id=":A3_9_0" index="0" speed="8.00" length="10.13" shape="999.04,1603.20 1000.60,1600.60 1003.35,1598.95 1007.20,1598.40"/>
    </edge>
    <edge id=":A3_10" function="internal">
        <lane id=":A3_10_0" index="0" speed="3.65" length="3.23" shape="999.20,1606.00 1000.00,1605.60 1000.80,1606.00 1001.60,1607.20"/>
    </edge>
    <edge id=":A3_3" function="internal">
        <lane id=":A3_3_0" index="0" speed="6.51" length="9.03" shape="1007.20,1601.60 1004.75,1601.95 1003.00,1603.00 1001.95,1604.75 1001.60,1607.20"/>
    </edge>
    <edge id=":A3_4" function="internal">
        <lane id=":A3_4_0" index="0" speed="8.00" length="14.19" shape="1007.20,1601.60 1003.35,1601.05 1000.60,1599.40 998.95,1596.65 998.40,1592.80"/>
    </edge>
    <edge id=":A3_5" function="internal">
        <lane id=":A3_5_0" index="0" speed="3.65" length="4.67" shape="1007.20,1601.60 1006.00,1600.80 1005.60,1600.00 1006.00,1599.20 1007.20,1598.40"/>
    </edge>
    <edge id=":A3_6" function="internal">
        <lane id=":A3_6_0" index="0" speed="6.51" length="9.03" shape="1001.60,1592.80 1001.95,1595.25 1003.00,1597.00 1004.75,1598.05 1007.20,1598.40"/>
    </edge>
    <edge id=":A3_7" function="internal">
        <lane id=":A3_7_0" index="0" speed="30.00" length="14.40" shape="1001.60,1592.80 1001.60,1607.20"/>
    </edge>
    <edge id=":A3_8" function="internal">
        <lane id=":A3_8_0" index="0" speed="3.65" length="1.44" shape="1001.60,1592.80 1000.80,1594.00"/>
    </edge>
    <edge id=":A3_11" function="internal">
        <lane id=":A3_11_0" index="0" speed="3.65" length="3.23" shape="1000.80,1594.00 1000.00,1594.40 999.20,1594.00 998.40,1592.80"/>
    </edge>
    <edge id=":A4_0" function="internal">
        <lane id=":A4_0_0" index="0" speed="30.00" length="14.40" shape="998.40,1807.20 998.40,1792.80"/>
    </edge>
    <edge id=":A4_1" function="internal">
        <lane id=":A4_1_0" index="0" speed="8.00" length="4.07" shape="998.40,1807.20 998.95,1803.35 999.04,1803.20"/>
    </edge>
    <edge id=":A4_2" function="internal">
        <lane id=":A4_2_0" index="0" speed="3.65" length="1.44" shape="998.40,1807.20 999.20,1806.00"/>
    </edge>
    <edge id=":A4_9" function="internal">
        <lane id=":A4_9_0" index="0" speed="8.00" length="10.13" shape="999.04,1803.20 1000.60,1800.60 1003.35,1798.95 1007.20,1798.40"/>
    </edge>
    <edge id=":A4_10" function="internal">
        <lane id=":A4_10_0" index="0" speed="3.65" length="3.23" shape="999.20,1806.00 1000.00,1805.60 1000.80,1806.00 1001.60,1807.20"/>
    </edge>
    <edge id=":A4_3" function="internal">
        <lane id=":A4_3_0" index="0" speed="6.51" length="9.03" shape="1007.20,1801.60 1004.75,1801.95 1003.00,1803.00 1001.95,1804.75 1001.60,1807.20"/>
    </edge>
    <edge id=":A4_4" function="internal">
        <lane id=":A4_4_0" index="0" speed="8.00" length="14.19" shape="1007.20,1801.60 1003.35,1801.05 1000.60,1799.40 998.95,1796.65 998.40,1792.80"/>
    </edge>
    <edge id=":A4_5" function="internal">
        <lane id=":A4_5_0" index="0" speed="3.65" length="4.67" shape="1007.20,1801.60 1006.00,1800.80 1005.60,1800.00 1006.00,1799.20 1007.20,1798.40"/>
    </edge>
    <edge id=":A4_6" function="internal">
        <lane id=":A4_6_0" index="0" speed="6.51" length="9.03" shape="1001.60,1792.80 1001.95,1795.25 1003.00,1797.00 1004.75,1798.05 1007.20,1798.40"/>
    </edge>
    <edge id=":A4_7" function="internal">
        <lane id=":A4_7_0" index="0" speed="30.00" length="14.40" shape="1001.60,1792.80 1001.60,1807.20"/>
    </edge>
    <edge id=":A4_8" function="internal">
        <lane id=":A4_8_0" index="0" speed="3.65" length="1.44" shape="1001.60,1792.80 1000.80,1794.00"/>
    </edge>
    <edge id=":A4_11" function="internal">
        <lane id=":A4_11_0" index="0" speed="3.65" length="3.23" shape="1000.80,1794.00 1000.00,1794.40 999.20,1794.00 998.40,1792.80"/>
    </edge>
    <edge id=":A5_0" function="internal">
        <lane id=":A5_0_0" index="0" speed="30.00" length="14.40" shape="998.40,2007.20 998.40,1992.80"/>
    </edge>
    <edge id=":A5_1" function="internal">
        <lane id=":A5_1_0" index="0" speed="8.00" length="4.07" shape="998.40,2007.20 998.95,2003.35 999.04,2003.20"/>
    </edge>
    <edge id=":A5_2" function="internal">
        <lane id=":A5_2_0" index="0" speed="3.65" length="1.44" shape="998.40,2007.20 999.20,2006.00"/>
    </edge>
    <edge id=":A5_9" function="internal">
        <lane id=":A5_9_0" index="0" speed="8.00" length="10.13" shape="999.04,2003.20 1000.60,2000.60 1003.35,1998.95 1007.20,1998.40"/>
    </edge>
    <edge id=":A5_10" function="internal">
        <lane id=":A5_10_0" index="0" speed="3.65" length="3.23" shape="999.20,2006.00 1000.00,2005.60 1000.80,2006.00 1001.60,2007.20"/>
    </edge>
    <edge id=":A5_3" function="internal">
        <lane id=":A5_3_0" index="0" speed="6.51" length="9.03" shape="1007.20,2001.60 1004.75,2001.95 1003.00,2003.00 1001.95,2004.75 1001.60,2007.20"/>
    </edge>
    <edge id=":A5_4" function="internal">
        <lane id=":A5_4_0" index="0" speed="8.00" length="14.19" shape="1007.20,2001.60 1003.35,2001.05 1000.60,1999.40 998.95,1996.65 998.40,1992.80"/>
    </edge>
    <edge id=":A5_5" function="internal">
        <lane id=":A5_5_0" index="0" speed="3.65" length="4.67" shape="1007.20,2001.60 1006.00,2000.80 1005.60,2000.00 1006.00,1999.20 1007.20,1998.40"/>
    </edge>
    <edge id=":A5_6" function="internal">
        <lane id=":A5_6_0" index="0" speed="6.51" length="9.03" shape="1001.60,1992.80 1001.95,1995.25 1003.00,1997.00 1004.75,1998.05 1007.20,1998.40"/>
    </edge>
    <edge id=":A5_7" function="internal">
        <lane id=":A5_7_0" index="0" speed="30.00" length="14.40" shape="1001.60,1992.80 1001.60,2007.20"/>
    </edge>
    <edge id=":A5_8" function="internal">
        <lane id=":A5_8_0" index="0" speed="3.65" length="1.44" shape="1001.60,1992.80 1000.80,1994.00"/>
    </edge>
    <edge id=":A5_11" function="internal">
        <lane id=":A5_11_0" index="0" speed="3.65" length="3.23" shape="1000.80,1994.00 1000.00,1994.40 999.20,1994.00 998.40,1992.80"/>
    </edge>
    <edge id=":A6_0" function="internal">
        <lane id=":A6_0_0" index="0" speed="30.00" length="14.40" shape="998.40,2207.20 998.40,2192.80"/>
    </edge>
    <edge id=":A6_1" function="internal">
        <lane id=":A6_1_0" index="0" speed="8.00" length="4.07" shape="998.40,2207.20 998.95,2203.35 999.04,2203.20"/>
    </edge>
    <edge id=":A6_2" function="internal">
        <lane id=":A6_2_0" index="0" speed="3.65" length="1.44" shape="998.40,2207.20 999.20,2206.00"/>
    </edge>
    <edge id=":A6_9" function="internal">
        <lane id=":A6_9_0" index="0" speed="8.00" length="10.13" shape="999.04,2203.20 1000.60,2200.60 1003.35,2198.95 1007.20,2198.40"/>
    </edge>
    <edge id=":A6_10" function="internal">
        <lane id=":A6_10_0" index="0" speed="3.65" length="3.23" shape="999.20,2206.00 1000.00,2205.60 1000.80,2206.00 1001.60,2207.20"/>
    </edge>
    <edge id=":A6_3" function="internal">
        <lane id=":A6_3_0" index="0" speed="6.51" length="9.03" shape="1007.20,2201.60 1004.75,2201.95 1003.00,2203.00 1001.95,2204.75 1001.60,2207.20"/>
    </edge>
    <edge id=":A6_4" function="internal">
        <lane id=":A6_4_0" index="0" speed="8.00" length="14.19" shape="1007.20,2201.60 1003.35,2201.05 1000.60,2199.40 998.95,2196.65 998.40,2192.80"/>
    </edge>
    <edge id=":A6_5" function="internal">
        <lane id=":A6_5_0" index="0" speed="3.65" length="4.67" shape="1007.20,2201.60 1006.00,2200.80 1005.60,2200.00 1006.00,2199.20 1007.20,2198.40"/>
    </edge>
    <edge id=":A6_6" function="internal">
        <lane id=":A6_6_0" index="0" speed="6.51" length="9.03" shape="1001.60,2192.80 1001.95,2195.25 1003.00,2197.00 1004.75,2198.05 1007.20,2198.40"/>
    </edge>
    <edge id=":A6_7" function="internal">
        <lane id=":A6_7_0" index="0" speed="30.00" length="14.40" shape="1001.60,2192.80 1001.60,2207.20"/>
    </edge>
    <edge id=":A6_8" function="internal">
        <lane id=":A6_8_0" index="0" speed="3.65" length="1.44" shape="1001.60,2192.80 1000.80,2194.00"/>
    </edge>
    <edge id=":A6_11" function="internal">
        <lane id=":A6_11_0" index="0" speed="3.65" length="3.23" shape="1000.80,2194.00 1000.00,2194.40 999.20,2194.00 998.40,2192.80"/>
    </edge>
    <edge id=":A7_0" function="internal">
        <lane id=":A7_0_0" index="0" speed="30.00" length="14.40" shape="998.40,2407.20 998.40,2392.80"/>
    </edge>
    <edge id=":A7_1" function="internal">
        <lane id=":A7_1_0" index="0" speed="8.00" length="4.07" shape="998.40,2407.20 998.95,2403.35 999.04,2403.20"/>
    </edge>
    <edge id=":A7_2" function="internal">
        <lane id=":A7_2_0" index="0" speed="3.65" length="1.44" shape="998.40,2407.20 999.20,2406.00"/>
    </edge>
    <edge id=":A7_9" function="internal">
        <lane id=":A7_9_0" index="0" speed="8.00" length="10.13" shape="999.04,2403.20 1000.60,2400.60 1003.35,2398.95 1007.20,2398.40"/>
    </edge>
    <edge id=":A7_10" function="internal">
        <lane id=":A7_10_0" index="0" speed="3.65" length="3.23" shape="999.20,2406.00 1000.00,2405.60 1000.80,2406.00 1001.60,2407.20"/>
    </edge>
    <edge id=":A7_3" function="internal">
        <lane id=":A7_3_0" index="0" speed="6.51" length="9.03" shape="1007.20,2401.60 1004.75,2401.95 1003.00,2403.00 1001.95,2404.75 1001.60,2407.20"/>
    </edge>
    <edge id=":A7_4" function="internal">
        <lane id=":A7_4_0" index="0" speed="8.00" length="14.19" shape="1007.20,2401.60 1003.35,2401.05 1000.60,2399.40 998.95,2396.65 998.40,2392.80"/>
    </edge>
    <edge id=":A7_5" function="internal">
        <lane id=":A7_5_0" index="0" speed="3.65" length="4.67" shape="1007.20,2401.60 1006.00,2400.80 1005.60,2400.00 1006.00,2399.20 1007.20,2398.40"/>
    </edge>
    <edge id=":A7_6" function="internal">
        <lane id=":A7_6_0" index="0" speed="6.51" length="9.03" shape="1001.60,2392.80 1001.95,2395.25 1003.00,2397.00 1004.75,2398.05 1007.20,2398.40"/>
    </edge>
    <edge id=":A7_7" function="internal">
        <lane id=":A7_7_0" index="0" speed="30.00" length="14.40" shape="1001.60,2392.80 1001.60,2407.20"/>
    </edge>
    <edge id=":A7_8" function="internal">
        <lane id=":A7_8_0" index="0" speed="3.65" length="1.44" shape="1001.60,2392.80 1000.80,2394.00"/>
    </edge>
    <edge id=":A7_11" function="internal">
        <lane id=":A7_11_0" index="0" speed="3.65" length="3.23" shape="1000.80,2394.00 1000.00,2394.40 999.20,2394.00 998.40,2392.80"/>
    </edge>
    <edge id=":A8_0" function="internal">
        <lane id=":A8_0_0" index="0" speed="30.00" length="14.40" shape="998.40,2607.20 998.40,2592.80"/>
    </edge>
    <edge id=":A8_1" function="internal">
        <lane id=":A8_1_0" index="0" speed="8.00" length="4.07" shape="998.40,2607.20 998.95,2603.35 999.04,2603.20"/>
    </edge>
    <edge id=":A8_2" function="internal">
        <lane id=":A8_2_0" index="0" speed="3.65" length="1.44" shape="998.40,2607.20 999.20,2606.00"/>
    </edge>
    <edge id=":A8_9" function="internal">
        <lane id=":A8_9_0" index="0" speed="8.00" length="10.13" shape="999.04,2603.20 1000.60,2600.60 1003.35,2598.95 1007.20,2598.40"/>
    </edge>
    <edge id=":A8_10" function="internal">
        <lane id=":A8_10_0" index="0" speed="3.65" length="3.23" shape="999.20,2606.00 1000.00,2605.60 1000.80,2606.00 1001.60,2607.20"/>
    </edge>
    <edge id=":A8_3" function="internal">
        <lane id=":A8_3_0" index="0" speed="6.51" length="9.03" shape="1007.20,2601.60 1004.75,2601.95 1003.00,2603.00 1001.95,2604.75 1001.60,2607.20"/>
    </edge>
    <edge id=":A8_4" function="internal">
        <lane id=":A8_4_0" index="0" speed="8.00" length="14.19" shape="1007.20,2601.60 1003.35,2601.05 1000.60,2599.40 998.95,2596.65 998.40,2592.80"/>
    </edge>
    <edge id=":A8_5" function="internal">
        <lane id=":A8_5_0" index="0" speed="3.65" length="4.67" shape="1007.20,2601.60 1006.00,2600.80 1005.60,2600.00 1006.00,2599.20 1007.20,2598.40"/>
    </edge>
    <edge id=":A8_6" function="internal">
        <lane id=":A8_6_0" index="0" speed="6.51" length="9.03" shape="1001.60,2592.80 1001.95,2595.25 1003.00,2597.00 1004.75,2598.05 1007.20,2598.40"/>
    </edge>
    <edge id=":A8_7" function="internal">
        <lane id=":A8_7_0" index="0" speed="30.00" length="14.40" shape="1001.60,2592.80 1001.60,2607.20"/>
    </edge>
    <edge id=":A8_8" function="internal">
        <lane id=":A8_8_0" index="0" speed="3.65" length="1.44" shape="1001.60,2592.80 1000.80,2594.00"/>
    </edge>
    <edge id=":A8_11" function="internal">
        <lane id=":A8_11_0" index="0" speed="3.65" length="3.23" shape="1000.80,2594.00 1000.00,2594.40 999.20,2594.00 998.40,2592.80"/>
    </edge>
    <edge id=":A9_0" function="internal">
        <lane id=":A9_0_0" index="0" speed="30.00" length="14.40" shape="998.40,2807.20 998.40,2792.80"/>
    </edge>
    <edge id=":A9_1" function="internal">
        <lane id=":A9_1_0" index="0" speed="8.00" length="4.07" shape="998.40,2807.20 998.95,2803.35 999.04,2803.20"/>
    </edge>
    <edge id=":A9_2" function="internal">
        <lane id=":A9_2_0" index="0" speed="3.65" length="1.44" shape="998.40,2807.20 999.20,2806.00"/>
    </edge>
    <edge id=":A9_9" function="internal">
        <lane id=":A9_9_0" index="0" speed="8.00" length="10.13" shape="999.04,2803.20 1000.60,2800.60 1003.35,2798.95 1007.20,2798.40"/>
    </edge>
    <edge id=":A9_10" function="internal">
        <lane id=":A9_10_0" index="0" speed="3.65" length="3.23" shape="999.20,2806.00 1000.00,2805.60 1000.80,2806.00 1001.60,2807.20"/>
    </edge>
    <edge id=":A9_3" function="internal">
        <lane id=":A9_3_0" index="0" speed="6.51" length="9.03" shape="1007.20,2801.60 1004.75,2801.95 1003.00,2803.00 1001.95,2804.75 1001.60,2807.20"/>
    </edge>
    <edge id=":A9_4" function="internal">
        <lane id=":A9_4_0" index="0" speed="8.00" length="14.19" shape="1007.20,2801.60 1003.35,2801.05 1000.60,2799.40 998.95,2796.65 998.40,2792.80"/>
    </edge>
    <edge id=":A9_5" function="internal">
        <lane id=":A9_5_0" index="0" speed="3.65" length="4.67" shape="1007.20,2801.60 1006.00,2800.80 1005.60,2800.00 1006.00,2799.20 1007.20,2798.40"/>
    </edge>
    <edge id=":A9_6" function="internal">
        <lane id=":A9_6_0" index="0" speed="6.51" length="9.03" shape="1001.60,2792.80 1001.95,2795.25 1003.00,2797.00 1004.75,2798.05 1007.20,2798.40"/>
    </edge>
    <edge id=":A9_7" function="internal">
        <lane id=":A9_7_0" index="0" speed="30.00" length="14.40" shape="1001.60,2792.80 1001.60,2807.20"/>
    </edge>
    <edge id=":A9_8" function="internal">
        <lane id=":A9_8_0" index="0" speed="3.65" length="1.44" shape="1001.60,2792.80 1000.80,2794.00"/>
    </edge>
    <edge id=":A9_11" function="internal">
        <lane id=":A9_11_0" index="0" speed="3.65" length="3.23" shape="1000.80,2794.00 1000.00,2794.40 999.20,2794.00 998.40,2792.80"/>
    </edge>
    <edge id=":B0_0" function="internal">
        <lane id=":B0_0_0" index="0" speed="6.51" length="9.03" shape="1198.40,1007.20 1198.05,1004.75 1197.00,1003.00 1195.25,1001.95 1192.80,1001.60"/>
    </edge>
    <edge id=":B0_1" function="internal">
        <lane id=":B0_1_0" index="0" speed="8.00" length="14.19" shape="1198.40,1007.20 1198.95,1003.35 1200.60,1000.60 1203.35,998.95 1207.20,998.40"/>
    </edge>
    <edge id=":B0_2" function="internal">
        <lane id=":B0_2_0" index="0" speed="3.65" length="4.67" shape="1198.40,1007.20 1199.20,1006.00 1200.00,1005.60 1200.80,1006.00 1201.60,1007.20"/>
    </edge>
    <edge id=":B0_3" function="internal">
        <lane id=":B0_3_0" index="0" speed="6.51" length="9.03" shape="1207.20,1001.60 1204.75,1001.95 1203.00,1003.00 1201.95,1004.75 1201.60,1007.20"/>
    </edge>
    <edge id=":B0_4" function="internal">
        <lane id=":B0_4_0" index="0" speed="30.00" length="14.40" shape="1207.20,1001.60 1192.80,1001.60"/>
    </edge>
    <edge id=":B0_5" function="internal">
        <lane id=":B0_5_0" index="0" speed="3.65" length="1.44" shape="1207.20,1001.60 1206.00,1000.80"/>
    </edge>
    <edge id=":B0_9" function="internal">
        <lane id=":B0_9_0" index="0" speed="3.65" length="3.23" shape="1206.00,1000.80 1205.60,1000.00 1206.00,999.20 1207.20,998.40"/>
    </edge>
    <edge id=":B0_6" function="internal">
        <lane id=":B0_6_0" index="0" speed="30.00" length="14.40" shape="1192.80,998.40 1207.20,998.40"/>
    </edge>
    <edge id=":B0_7" function="internal">
        <lane id=":B0_7_0" index="0" speed="8.00" length="4.07" shape="1192.80,998.40 1196.65,998.95 1196.80,999.04"/>
    </edge>
    <edge id=":B0_8" function="internal">
        <lane id=":B0_8_0" index="0" speed="3.65" length="1.44" shape="1192.80,998.40 1194.00,999.20"/>
    </edge>
    <edge id=":B0_10" function="internal">
        <lane id=":B0_10_0" index="0" speed="8.00" length="10.13" shape="1196.80,999.04 1199.40,1000.60 1201.05,1003.35 1201.60,1007.20"/>
    </edge>
    <edge id=":B0_11" function="internal">
        <lane id=":B0_11_0" index="0" speed="3.65" length="3.23" shape="1194.00,999.20 1194.40,1000.00 1194.00,1000.80 1192.80,1001.60"/>
    </edge>
    <edge id=":B1_0" function="internal">
        <lane id=":B1_0_0" index="0" speed="6.51" length="9.03" shape="1198.40,1207.20 1198.05,1204.75 1197.00,1203.00 1195.25,1201.95 1192.80,1201.60"/>
    </edge>
    <edge id=":B1_1" function="internal">
        <lane id=":B1_1_0" index="0" speed="30.00" length="14.40" shape="1198.40,1207.20 1198.40,1192.80"/>
    </edge>
    <edge id=":B1_2" function="internal">
        <lane id=":B1_2_0" index="0" speed="8.00" length="4.07" shape="1198.40,1207.20 1198.95,1203.35 1199.04,1203.20"/>
    </edge>
    <edge id=":B1_3" function="internal">
        <lane id=":B1_3_0" index="0" speed="3.65" length="1.44" shape="1198.40,1207.20 1199.20,1206.00"/>
    </edge>
    <edge id=":B1_16" function="internal">
        <lane id=":B1_16_0" index="0" speed="8.00" length="10.13" shape="1199.04,1203.20 1200.60,1200.60 1203.35,1198.95 1207.20,1198.40"/>
    </edge>
    <edge id=":B1_17" function="internal">
        <lane id=":B1_17_0" index="0" speed="3.65" length="3.23" shape="1199.20,1206.00 1200.00,1205.60 1200.80,1206.00 1201.60,1207.20"/>
    </edge>
    <edge id=":B1_4" function="internal">
        <lane id=":B1_4_0" index="0" speed="6.51" length="9.03" shape="1207.20,1201.60 1204.75,1201.95 1203.00,1203.00 1201.95,1204.75 1201.60,1207.20"/>
    </edge>
    <edge id=":B1_5" function="internal">
        <lane id=":B1_5_0" index="0" speed="30.00" length="14.40" shape="1207.20,1201.60 1192.80,1201.60"/>
    </edge>
    <edge id=":B1_6" function="internal">
        <lane id=":B1_6_0" index="0" speed="8.00" length="14.19" shape="1207.20,1201.60 1203.35,1201.05 1200.60,1199.40 1198.95,1196.65 1198.40,1192.80"/>
    </edge>
    <edge id=":B1_7" function="internal">
        <lane id=":B1_7_0" index="0" speed="3.65" length="4.67" shape="1207.20,1201.60 1206.00,1200.80 1205.60,1200.00 1206.00,1199.20 1207.20,1198.40"/>
    </edge>
    <edge id=":B1_8" function="internal">
        <lane id=":B1_8_0" index="0" speed="6.51" length="9.03" shape="1201.60,1192.80 1201.95,1195.25 1203.00,1197.00 1204.75,1198.05 1207.20,1198.40"/>
    </edge>
    <edge id=":B1_9" function="internal">
        <lane id=":B1_9_0" index="0" speed="30.00" length="14.40" shape="1201.60,1192.80 1201.60,1207.20"/>
    </edge>
    <edge id=":B1_10" function="internal">
        <lane id=":B1_10_0" index="0" speed="8.00" length="4.07" shape="1201.60,1192.80 1201.05,1196.65 1200.96,1196.80"/>
    </edge>
    <edge id=":B1_11" function="internal">
        <lane id=":B1_11_0" index="0" speed="3.65" length="1.44" shape="1201.60,1192.80 1200.80,1194.00"/>
    </edge>
    <edge id=":B1_18" function="internal">
        <lane id=":B1_18_0" index="0" speed="8.00" length="10.13" shape="1200.96,1196.80 1199.40,1199.40 1196.65,1201.05 1192.80,1201.60"/>
    </edge>
    <edge id=":B1_19" function="internal">
        <lane id=":B1_19_0" index="0" speed="3.65" length="3.23" shape="1200.80,1194.00 1200.00,1194.40 1199.20,1194.00 1198.40,1192.80"/>
    </edge>
    <edge id=":B1_12" function="internal">
        <lane id=":B1_12_0" index="0" speed="6.51" length="9.03" shape="1192.80,1198.40 1195.25,1198.05 1197.00,1197.00 1198.05,1195.25 1198.40,1192.80"/>
    </edge>
    <edge id=":B1_13" function="internal">
        <lane id=":B1_13_0" index="0" speed="30.00" length="14.40" shape="1192.80,1198.40 1207.20,1198.40"/>
    </edge>
    <edge id=":B1_14" function="internal">
        <lane id=":B1_14_0" index="0" speed="8.00" length="14.19" shape="1192.80,1198.40 1196.65,1198.95 1199.40,1200.60 1201.05,1203.35 1201.60,1207.20"/>
    </edge>
    <edge id=":B1_15" function="internal">
        <lane id=":B1_15_0" index="0" speed="3.65" length="4.67" shape="1192.80,1198.40 1194.00,1199.20 1194.40,1200.00 1194.00,1200.80 1192.80,1201.60"/>
    </edge>
    <edge id=":B10_0" function="internal">
        <lane id=":B10_0_0" index="0" speed="30.00" length="14.40" shape="1207.20,3001.60 1192.80,3001.60"/>
    </edge>
    <edge id=":B10_1" function="internal">
        <lane id=":B10_1_0" index="0" speed="8.00" length="4.07" shape="1207.20,3001.60 1203.35,3001.05 1203.20,3000.96"/>
    </edge>
    <edge id=":B10_2" function="internal">
        <lane id=":B10_2_0" index="0" speed="3.65" length="1.44" shape="1207.20,3001.60 1206.00,3000.80"/>
    </edge>
    <edge id=":B10_9" function="internal">
        <lane id=":B10_9_0" index="0" speed="8.00" length="10.13" shape="1203.20,3000.96 1200.60,2999.40 1198.95,2996.65 1198.40,2992.80"/>
    </edge>
    <edge id=":B10_10" function="internal">
        <lane id=":B10_10_0" index="0" speed="3.65" length="3.23" shape="1206.00,3000.80 1205.60,3000.00 1206.00,2999.20 1207.20,2998.40"/>
    </edge>
    <edge id=":B10_3" function="internal">
        <lane id=":B10_3_0" index="0" speed="6.51" length="9.03" shape="1201.60,2992.80 1201.95,2995.25 1203.00,2997.00 1204.75,2998.05 1207.20,2998.40"/>
    </edge>
    <edge id=":B10_4" function="internal">
        <lane id=":B10_4_0" index="0" speed="8.00" length="14.19" shape="1201.60,2992.80 1201.05,2996.65 1199.40,2999.40 1196.65,3001.05 1192.80,3001.60"/>
    </edge>
    <edge id=":B10_5" function="internal">
        <lane id=":B10_5_0" index="0" speed="3.65" length="4.67" shape="1201.60,2992.80 1200.80,2994.00 1200.00,2994.40 1199.20,2994.00 1198.40,2992.80"/>
    </edge>
    <edge id=":B10_6" function="internal">
        <lane id=":B10_6_0" index="0" speed="6.51" length="9.03" shape="1192.80,2998.40 1195.25,2998.05 1197.00,2997.00 1198.05,2995.25 1198.40,2992.80"/>
    </edge>
    <edge id=":B10_7" function="internal">
        <lane id=":B10_7_0" index="0" speed="30.00" length="14.40" shape="1192.80,2998.40 1207.20,2998.40"/>
    </edge>
    <edge id=":B10_8" function="internal">