<?xml version='1.0' encoding='utf-8'?>
<configuration>
  <input>
    <net-file value="grid.net.xml" />
    <route-files value="routes_30v.rou.xml" />
    <additional-files value="vtypes.add.xml" />
  </input>
  <time>
    <begin value="0" />
    <end value="100" />
    <step-length value="0.1" />
  </time>
  <output>
    <fcd-output value="fcd_30v.xml" />
  </output>
</configuration>