<configuration>
    <input>
        <net-file value="map.net.xml"/>
        <route-files value="veic.rou.xml"/>
    </input>
    <time>
        <begin value="0"/>
        <end value="100"/>
        <step-length value="0.1"/>
    </time>
</configuration>