<routes>
    <vType id="car" maxSpeed="30" accel="2" decel="2" sigma="0.0" />
    
    <flow id="flow_0" type="car" 
          from="edge_0" to="edge_10" 
          begin="0" end="100" 
          number="20"/>
</routes>