<?xml version='1.0' encoding='utf-8'?>
<additional>
  <vType id="car" accel="2.0" decel="2.0" maxSpeed="30.0" length="4.5" width="2.0" sigma="0.0" color="1,0,0" />
</additional>